src/test/resources/esgTutoReportDetailedNrReportLfSa.txt
+ Test ESG tutorial report
  + Load flow on network 'sim1'
    + Network CC0 SC0
       AC load flow complete with NR status 'CONVERGED'
      + Post loading processing
         Network has 4 buses and 4 branches
         Network balance: active generation=607.0 MW, active load=600.0 MW, reactive generation=0.0 MVar, reactive load=200.0 MVar
      + Newton Raphson on Network CC0 SC0 || No outer loops calculations
        + Initial mismatch
           Norm |f(x0)|='11.37683042330867'
          + Initial mismatch on TargetP
             Mismatch on TargetP : '5.999135514403292'
             Bus Id : 'VLLOAD_0'
             Bus V : '1.0'
             Bus Phi : '0.0'
          + Initial mismatch on TargetQ
             Mismatch on TargetQ : '-7.397518453004565'
             Bus Id : 'VLHV1_0'
             Bus V : '1.0'
             Bus Phi : '0.0'
          + Initial mismatch on TargetV
             Mismatch on TargetV : '-0.02083333333333326'
             Bus Id : 'VLGEN_0'
             Bus V : '1.0'
             Bus Phi : '0.0'
        + Iteration 0 mismatch
           Norm |f(x)|='1.370521997338349'
          + Iteration 0 mismatch on TargetP
             Mismatch on TargetP : '0.5654241868659025'
             Bus Id : 'VLGEN_0'
             Bus V : '1.0208333333333333'
             Bus Phi : '0.044267798791154236'
          + Iteration 0 mismatch on TargetQ
             Mismatch on TargetQ : '0.9076781074655959'
             Bus Id : 'VLHV1_0'
             Bus V : '1.0713810414454683'
             Bus Phi : '-3.393522766578452E-17'
          + Iteration 0 mismatch on TargetV
             Mismatch on TargetV : '0.0'
             Bus Id : 'VLGEN_0'
             Bus V : '1.0208333333333333'
             Bus Phi : '0.044267798791154236'
        + Iteration 1 mismatch
           Norm |f(x)|='0.02735383065047368'
          + Iteration 1 mismatch on TargetP
             Mismatch on TargetP : '-0.011906013412646743'
             Bus Id : 'VLHV2_0'
             Bus V : '1.0267735150466015'
             Bus Phi : '-0.06136319436584185'
          + Iteration 1 mismatch on TargetQ
             Mismatch on TargetQ : '0.015807200344973626'
             Bus Id : 'VLHV2_0'
             Bus V : '1.0267735150466015'
             Bus Phi : '-0.06136319436584185'
          + Iteration 1 mismatch on TargetV
             Mismatch on TargetV : '0.0'
             Bus Id : 'VLGEN_0'
             Bus V : '1.0208333333333333'
             Bus Phi : '0.0407316584549734'
        + Iteration 2 mismatch
           Norm |f(x)|='2.0034253596371782E-5'
          + Iteration 2 mismatch on TargetP
             Mismatch on TargetP : '-1.2624760780788336E-5'
             Bus Id : 'VLHV2_0'
             Bus V : '1.0261840057810543'
             Bus Phi : '-0.0611984592137325'
          + Iteration 2 mismatch on TargetQ
             Mismatch on TargetQ : '1.0873067915362356E-5'
             Bus Id : 'VLHV2_0'
             Bus V : '1.0261840057810543'
             Bus Phi : '-0.0611984592137325'
          + Iteration 2 mismatch on TargetV
             Mismatch on TargetV : '0.0'
             Bus Id : 'VLGEN_0'
             Bus V : '1.0208333333333333'
             Bus Phi : '0.04069359966489529'
      + Outer loop Distributed slack on generation
         Iteration 0: slack bus active power (-1.4404045651219555 MW) distributed in 1 iterations
         Iteration 1: already balanced
      + Newton Raphson on Network CC0 SC0 || Outer loop iteration 1 and type `Distributed slack on generation`
        + Initial mismatch
           Norm |f(x0)|='0.014405623086541253'
          + Initial mismatch on TargetP
             Mismatch on TargetP : '0.014405609240326633'
             Bus Id : 'VLGEN_0'
             Bus V : '1.0208333333333333'
             Bus Phi : '0.04069359966489529'
          + Initial mismatch on TargetQ
             Mismatch on TargetQ : '1.0873067915362356E-5'
             Bus Id : 'VLHV2_0'
             Bus V : '1.0261840057810543'
             Bus Phi : '-0.0611984592137325'
          + Initial mismatch on TargetV
             Mismatch on TargetV : '0.0'
             Bus Id : 'VLGEN_0'
             Bus V : '1.0208333333333333'
             Bus Phi : '0.04069359966489529'
        + Iteration 0 mismatch
           Norm |f(x)|='7.102239009042218E-7'
          + Iteration 0 mismatch on TargetP
             Mismatch on TargetP : '-1.0630223634677805E-7'
             Bus Id : 'VLGEN_0'
             Bus V : '1.0208333333333333'
             Bus Phi : '0.04059603080710122'
          + Iteration 0 mismatch on TargetQ
             Mismatch on TargetQ : '7.02222821225007E-7'
             Bus Id : 'VLHV1_0'
             Bus V : '1.058270597695305'
             Bus Phi : '7.399385937372922E-22'
          + Iteration 0 mismatch on TargetV
             Mismatch on TargetV : '0.0'
             Bus Id : 'VLGEN_0'
             Bus V : '1.0208333333333333'
             Bus Phi : '0.04059603080710122'
      + Outer loop Voltage monitoring
      + Outer loop Reactive limits
      + Outer loop Distributed slack on generation
         Iteration 1: already balanced
      + Outer loop Voltage monitoring
      + Outer loop Reactive limits
  + Sensitivity analysis on network 'sim1'
    + Network CC0 SC0
       AC load flow complete with NR status 'CONVERGED'
      + Post loading processing
         Network has 4 buses and 4 branches
         Network balance: active generation=607.0 MW, active load=600.0 MW, reactive generation=0.0 MVar, reactive load=200.0 MVar
      + Newton Raphson on Network CC0 SC0 || No outer loops calculations
        + Initial mismatch
           Norm |f(x0)|='0.014404151970573112'
          + Initial mismatch on TargetP
             Mismatch on TargetP : '-0.014404151953455901'
             Bus Id : 'VLGEN_0'
             Bus V : '1.0208333333333333'
             Bus Phi : '0.040596030807101224'
          + Initial mismatch on TargetQ
             Mismatch on TargetQ : '7.02222821225007E-7'
             Bus Id : 'VLHV1_0'
             Bus V : '1.058270597695305'
             Bus Phi : '7.399385937372922E-22'
          + Initial mismatch on TargetV
             Mismatch on TargetV : '0.0'
             Bus Id : 'VLGEN_0'
             Bus V : '1.0208333333333333'
             Bus Phi : '0.040596030807101224'
        + Iteration 0 mismatch
           Norm |f(x)|='7.105375846338748E-7'
          + Iteration 0 mismatch on TargetP
             Mismatch on TargetP : '-1.0899671565312019E-7'
             Bus Id : 'VLGEN_0'
             Bus V : '1.0208333333333333'
             Bus Phi : '0.04069359150608377'
          + Iteration 0 mismatch on TargetQ
             Mismatch on TargetQ : '7.021268124685065E-7'
             Bus Id : 'VLHV1_0'
             Bus V : '1.0582634572825331'
             Bus Phi : '-2.508257488317156E-22'
          + Iteration 0 mismatch on TargetV
             Mismatch on TargetV : '0.0'
             Bus Id : 'VLGEN_0'
             Bus V : '1.0208333333333333'
             Bus Phi : '0.04069359150608377'
      + Outer loop Voltage monitoring
      + Outer loop Reactive limits
